version 2
1
9
.tran 100n 300m 0{return}.kicad adjustpaths{return}.save all{return}.probe alli
1
1
V(/VLED)
 
